30

 C        -1.489692318785     -0.571027534412      0.000000000000
 C        -0.579515876011     -1.572005491275      0.000000000000
 C         0.787127998751     -1.100282820607      0.000000000000
 C         0.847943077873      0.343124249496      0.000000000000
 C         2.039575342046      1.019533653105      0.000000000000
 C         3.263887311740      0.286709518975      0.000000000000
 C         3.221949373232     -1.165392085323      0.000000000000
 C         1.961283716944     -1.824351903701      0.000000000000
 C         4.430349011411     -1.877149634995      0.000000000000
 C         5.674135974095     -1.234348735299      0.000000000000
 C         5.716075027033      0.217752680737      0.000000000000
 C         4.507674147848      0.929510946757      0.000000000000
 C         6.976741437556      0.876710763064      0.000000000000
 C         8.150896858807      0.152638793135      0.000000000000
 C         8.090079395707     -1.290768583265      0.000000000000
 C         6.898445359838     -1.967174620457      0.000000000000
 C        10.427715611575     -0.376625548476      0.000000000000
 C         9.517541789581      0.624357003069      0.000000000000
 H        -2.568297118623     -0.663968413631      0.000000000000
 H        -0.845077759545     -2.623819718570      0.000000000000
 H         2.074788374632      2.105733729800      0.000000000000
 H         1.935367484868     -2.911584479985      0.000000000000
 H         4.399348481517     -2.964835921707      0.000000000000
 H         4.538675086639      2.017197000607      0.000000000000
 H         7.002660210405      1.963942961987      0.000000000000
 H         6.863230055493     -3.053375004151      0.000000000000
 H        11.506320724445     -0.283688187681      0.000000000000
 H         9.783106546897      1.676170484948      0.000000000000
 S        -0.778223141536      1.040119282335      0.000000000000
 S         9.716240344367     -1.987767837781      0.000000000000