104

C          4.91098        1.39971       -0.24483
C          4.91024        0.00862       -0.25450
C          3.70223       -0.68607       -0.18290
C          2.48013        0.00413       -0.10640
C          2.48038        1.40619       -0.09810
C          3.70369        2.09521       -0.16452
C          1.25165        2.08226       -0.03378
C          0.00000        1.41090        0.00000
C          0.00000        0.00000        0.00000
C          1.25169       -0.67161       -0.04600
C         -1.24578       -0.68906        0.03627
C         -2.49166       -0.00307        0.00013
C         -2.49224        1.40797       -0.00380
C         -1.24598        2.09803        0.02540
C         -3.74536        2.07746       -0.04504
C         -4.97311        1.39987       -0.10541
C         -4.97141       -0.00235       -0.10557
C         -3.74195       -0.67701       -0.04306
C         -6.19354       -0.69292       -0.17772
C         -7.40200        0.00113       -0.25237
C         -7.40353        1.39225       -0.25114
C         -6.19651        2.08844       -0.17600
H          5.84952        1.94475       -0.30198
H          5.84808       -0.53673       -0.31940
H          3.72005       -1.77369       -0.19324
H          3.72280        3.18290       -0.16094
H          1.27579        3.17054       -0.02653
H          1.27669       -1.76012       -0.05490
C         -1.24022       -2.12962        0.12430
C         -1.25234        3.54058        0.08840
H         -3.77238        3.16591       -0.04938
H         -3.76408       -1.76595       -0.04915
H         -6.21084       -1.78066       -0.18305
H         -8.33961       -0.54504       -0.31405
H         -8.34233        1.93649       -0.31165
H         -6.21618        3.17608       -0.18007
C         -1.20408       -3.32792        0.21926
C         -1.12124       -4.79824        0.33097
C         -1.29866        4.73904        0.17657
C         -1.40874        6.20612        0.30998
C         -2.45825       -5.41574        0.88906
C         -1.97649       -6.79968        1.35695
C         -3.55080       -5.57038       -0.18704
C         -3.09134       -4.65846        2.07761
C         -0.64257       -6.53314        2.04840
H         -1.81540       -7.47072        0.50373
H         -2.68592       -7.29432        2.02910
C         -0.00479       -5.30207        1.33999
H         -0.00784       -7.42547        2.00738
H         -0.82181       -6.32747        3.11085
C          1.29696       -5.75056        0.64224
C          0.41335       -4.26662        2.40929
H          1.12242       -6.56171       -0.07236
H          2.02360       -6.12454        1.37365
H          1.77058       -4.91727        0.11329
H         -0.43751       -3.84844        2.95132
H          0.96392       -3.43186        1.96167
H          1.07598       -4.72341        3.15440
H         -2.42171       -4.56431        2.93379
H         -3.98074       -5.18866        2.43987
H         -3.41587       -3.65344        1.78943
H         -3.22909       -6.20342       -1.02060
H         -3.83801       -4.59574       -0.59649
H         -4.45045       -6.03534        0.23259
C         -0.04270        6.92744        0.00730
C         -2.43461        6.86157       -0.70596
O         -1.77080        6.61958        1.65347
C         -1.77220        8.20936       -1.11592
C         -3.81498        7.15378       -0.07974
C         -2.70619        6.02437       -1.97710
C         -0.51793        8.36614       -0.25998
H         -2.43625        9.07007       -0.97817
H         -1.48721        8.20205       -2.17508
H         -0.77885        8.87602        0.67610
H          0.23788        8.97904       -0.76276
C          0.72740        6.40066       -1.22322
C          0.93240        6.90346        1.20120
H         -1.79089        5.72042       -2.48929
H         -3.30414        6.59490       -2.69792
H         -3.27125        5.11546       -1.74217
H         -3.74336        7.83298        0.77625
H         -4.30367        6.23103        0.24967
H         -4.48131        7.63182       -0.80782
H          0.15235        6.45940       -2.14841
H          1.04478        5.36247       -1.08712
H          1.63641        6.99205       -1.38842
H          0.51148        7.37782        2.09398
H          1.85593        7.44412        0.96375
H          1.20464        5.87534        1.46390
C         -2.38732        5.66294        2.50901
O         -0.90462       -5.43929       -0.95285
C         -0.34745       -4.65622       -2.00417
C         -0.00884       -5.58677       -3.15300
H          0.55930       -4.14034       -1.67379
H         -1.08421       -3.92248       -2.34793
H          0.71498       -6.34415       -2.83461
H          0.41056       -5.02929       -3.99516
H         -0.90216       -6.12158       -3.49221
C         -2.85814        6.38809        3.75586
H         -1.65675        4.89966        2.79686
H         -3.24294        5.18908        2.01836
H         -2.01830        6.88315        4.25479
H         -3.32666        5.69317        4.45831
H         -3.58022        7.16964        3.49720
